test/data/three_phase/ieee_13_core/result.csv
# result.csv run at 2000-01-01 00:00:00 EST on 16 powerflow objects (not all are nodes)
node_name,voltA_real,voltA_imag,voltB_real,voltB_imag,voltC_real,voltC_imag
n630,2551.872178,0.009692,-1260.914633,-2183.989885,-1283.450224,2222.976678
n632,2522.264067,-22.808067,-1271.713885,-2137.041419,-1221.895080,2203.573395
l6321,2514.862040,-28.512507,-1274.413697,-2125.304302,-1206.506294,2198.722574
l6711,2490.217532,-45.869289,-1284.571692,-2094.193728,-1169.990388,2185.943230
n650,2401.777100,0.000000,-1200.888600,-2080.000000,-1200.888600,2080.000000
l671,2490.217532,-45.869289,-1284.571692,-2094.193728,-1169.990388,2185.943230
